/*--------------------------------*- C++ -*----------------------------------*\
  =========                 |
  \\      /  F ield         | OpenFOAM: The Open Source CFD Toolbox
   \\    /   O peration     | Website:  https://openfoam.org
    \\  /    A nd           | Version:  11
     \\/     M anipulation  |
\*---------------------------------------------------------------------------*/
FoamFile
{
    format      ascii;
    class       dictionary;
    object      blockMeshDict;
}
// * * * * * * * * * * * * * * * * * * * * * * * * * * * * * * * * * * * * * //

vertices
(
    (     0.000000     0.000000     0.000000 ) //      0
    (     1.000000     0.000000     0.000000 ) //      1
    (     1.000000     1.000000     0.000000 ) //      2
    (     0.000000     1.000000     0.000000 ) //      3
    (     0.000000     0.000000     1.000000 ) //      4
    (     1.000000     0.000000     1.000000 ) //      5
    (     1.000000     1.000000     1.000000 ) //      6
    (     0.000000     1.000000     1.000000 ) //      7
    (     1.000000     2.000000     0.000000 ) //      8
    (     0.000000     2.000000     0.000000 ) //      9
    (     1.000000     2.000000     1.000000 ) //     10
    (     0.000000     2.000000     1.000000 ) //     11
);

blocks
(
    hex (3 2 8 9 7 6 10 11) Block-1 (10 10 10) simpleGrading (1 1 1)
    hex (0 1 2 3 4 5 6 7) Block-0 (10 10 10) simpleGrading (1 1 1)
);


// ************************************************************************* //
//                      generated with pyBlockFoam                           //
// ************************************************************************* //

